CRYSTAL
PRIMVEC
      5.94572010      0.00000000      0.00000000
     -2.97286005      5.14914465      0.00000000
      5.94572010      3.43276310      4.85466013
CONVVEC
      5.94572010      0.00000000      0.00000000
     -2.97286005      5.14914465      0.00000000
      5.94572010      3.43276310      4.85466013
PRIMCOORD
  16 1
  28      2.97286005      0.00000000      0.00000000
  28     -1.48643002      2.57457232      0.00000000
  28      1.48643002      2.57457232      0.00000000
   8      0.00000000      3.43276310      1.21366503
  28      0.00000000      0.00000000      0.00000000
   8      1.48643002      0.85819077      1.21366503
   8      4.45929007      0.85819077      1.21366503
   8      2.97286005      3.43276310      1.21366503
  28      5.94572010      1.71638155      2.42733007
  28      1.48643002      4.29095387      2.42733007
  28      4.45929007      4.29095387      2.42733007
   8      2.97286005      5.14914465      3.64099510
  28      2.97286005      1.71638155      2.42733007
   8      4.45929007      2.57457232      3.64099510
   8      7.43215012      2.57457232      3.64099510
   8      5.94572010      5.14914465      3.64099510
